<?xml version="1.0" encoding="UTF-8"?>

<!-- generated on 07/30/20 17:33:51 by Eclipse SUMO netedit Version 1.6.0
<configuration xmlns:xsi="http://www.w3.org/2001/XMLSchema-instance" xsi:noNamespaceSchemaLocation="http://sumo.dlr.de/xsd/netconvertConfiguration.xsd">

    <input>
        <sumo-net-file value="E:\project\IoTBlockchain-py3\simulation.net.xml"/>
    </input>

    <output>
        <output-file value="E:\project\IoTBlockchain-py3\simulation.net.xml"/>
    </output>

    <processing>
        <geometry.min-radius.fix.railways value="false"/>
        <geometry.max-grade.fix value="false"/>
        <offset.disable-normalization value="true"/>
        <lefthand value="false"/>
    </processing>

    <junctions>
        <no-turnarounds value="true"/>
        <junctions.corner-detail value="5"/>
        <junctions.limit-turn-speed value="5.5"/>
        <rectangular-lane-cut value="false"/>
    </junctions>

    <pedestrian>
        <walkingareas value="false"/>
    </pedestrian>

    <report>
        <aggregate-warnings value="5"/>
    </report>

</configuration>
-->

<net version="1.6" junctionCornerDetail="5" limitTurnSpeed="5.50" xmlns:xsi="http://www.w3.org/2001/XMLSchema-instance" xsi:noNamespaceSchemaLocation="http://sumo.dlr.de/xsd/net_file.xsd">

    <location netOffset="0.00,0.00" convBoundary="-218.00,-240.80,436.19,969.13" origBoundary="-10000000000.00,-10000000000.00,10000000000.00,10000000000.00" projParameter="!"/>

    <edge id=":c1_0" function="internal">
        <lane id=":c1_0_0" index="0" speed="7.33" length="11.74" shape="3.21,824.94 2.86,821.09 1.81,818.33 0.06,816.68 -2.39,816.13"/>
    </edge>
    <edge id=":c1_1" function="internal">
        <lane id=":c1_1_0" index="0" speed="22.00" length="21.05" shape="6.41,824.94 6.41,804.13"/>
        <lane id=":c1_1_1" index="1" speed="22.00" length="21.05" shape="6.41,824.94 6.91,818.73 8.01,814.53 9.11,810.34 9.61,804.13"/>
        <lane id=":c1_1_2" index="2" speed="22.00" length="21.05" shape="9.61,824.94 10.11,818.73 11.21,814.53 12.31,810.34 12.81,804.13"/>
        <lane id=":c1_1_3" index="3" speed="22.00" length="21.05" shape="12.81,824.94 13.31,818.73 14.41,814.53 15.51,810.34 16.01,804.13"/>
    </edge>
    <edge id=":c1_5" function="internal">
        <lane id=":c1_5_0" index="0" speed="10.96" length="27.54" shape="16.01,824.94 17.36,819.68 21.41,815.93 28.16,813.68 37.61,812.93"/>
    </edge>
    <edge id=":c1_6" function="internal">
        <lane id=":c1_6_0" index="0" speed="7.32" length="11.72" shape="37.61,819.33 33.76,819.68 31.01,820.73 29.36,822.48 28.81,824.93"/>
    </edge>
    <edge id=":c1_7" function="internal">
        <lane id=":c1_7_0" index="0" speed="22.00" length="40.06" shape="37.61,819.33 -2.39,816.13"/>
        <lane id=":c1_7_1" index="1" speed="22.00" length="40.06" shape="37.61,816.13 -2.39,816.13"/>
    </edge>
    <edge id=":c1_9" function="internal">
        <lane id=":c1_9_0" index="0" speed="11.49" length="30.39" shape="37.61,816.13 26.76,815.38 19.01,813.13 14.36,809.38 12.81,804.13"/>
    </edge>
    <edge id=":c1_10" function="internal">
        <lane id=":c1_10_0" index="0" speed="10.96" length="27.53" shape="37.61,816.13 28.16,815.38 21.41,813.13 17.36,809.38 16.01,804.13"/>
    </edge>
    <edge id=":c1_11" function="internal">
        <lane id=":c1_11_0" index="0" speed="7.32" length="11.72" shape="32.02,804.13 32.36,807.98 33.41,810.73 35.16,812.38 37.61,812.93"/>
    </edge>
    <edge id=":c1_12" function="internal">
        <lane id=":c1_12_0" index="0" speed="22.00" length="20.88" shape="28.82,804.13 28.81,824.93"/>
        <lane id=":c1_12_1" index="1" speed="22.00" length="20.88" shape="25.62,804.13 25.61,824.93"/>
        <lane id=":c1_12_2" index="2" speed="22.00" length="20.88" shape="22.42,804.13 22.41,824.93"/>
        <lane id=":c1_12_3" index="3" speed="22.00" length="20.88" shape="22.42,804.13 21.91,810.34 20.81,814.53 19.71,818.72 19.21,824.93"/>
    </edge>
    <edge id=":c1_16" function="internal">
        <lane id=":c1_16_0" index="0" speed="10.96" length="27.54" shape="19.22,804.13 17.86,809.38 13.81,813.13 7.06,815.38 -2.39,816.13"/>
    </edge>
    <edge id=":c1_17" function="internal">
        <lane id=":c1_17_0" index="0" speed="7.33" length="11.72" shape="-2.39,809.73 1.46,809.38 4.21,808.33 5.86,806.58 6.41,804.13"/>
    </edge>
    <edge id=":c1_18" function="internal">
        <lane id=":c1_18_0" index="0" speed="22.00" length="40.06" shape="-2.39,809.73 37.61,812.93"/>
        <lane id=":c1_18_1" index="1" speed="22.00" length="40.06" shape="-2.39,812.93 37.61,812.93"/>
    </edge>
    <edge id=":c1_20" function="internal">
        <lane id=":c1_20_0" index="0" speed="11.50" length="30.40" shape="-2.39,812.93 8.46,813.68 16.21,815.93 20.86,819.68 22.41,824.93"/>
    </edge>
    <edge id=":c1_21" function="internal">
        <lane id=":c1_21_0" index="0" speed="10.96" length="27.54" shape="-2.39,812.93 7.06,813.68 13.81,815.93 17.86,819.68 19.21,824.93"/>
    </edge>
    <edge id=":gneJ1_0" function="internal">
        <lane id=":gneJ1_0_0" index="0" speed="22.00" length="8.16" shape="6.57,1.95 6.07,-0.51 4.97,-2.05 3.87,-3.58 3.37,-6.04"/>
        <lane id=":gneJ1_0_1" index="1" speed="22.00" length="8.16" shape="6.57,1.95 6.57,-6.04"/>
        <lane id=":gneJ1_0_2" index="2" speed="22.00" length="8.16" shape="9.77,1.95 9.77,-6.05"/>
        <lane id=":gneJ1_0_3" index="3" speed="22.00" length="8.16" shape="12.97,1.95 12.97,-6.05"/>
        <lane id=":gneJ1_0_4" index="4" speed="22.00" length="8.16" shape="16.17,1.95 16.17,-6.05"/>
    </edge>
    <edge id=":gneJ11_0" function="internal">
        <lane id=":gneJ11_0_0" index="0" speed="7.33" length="11.72" shape="3.31,-87.58 2.96,-91.43 1.90,-94.18 0.15,-95.83 -2.30,-96.38"/>
    </edge>
    <edge id=":gneJ11_1" function="internal">
        <lane id=":gneJ11_1_0" index="0" speed="22.00" length="27.38" shape="6.51,-87.58 6.52,-114.78"/>
        <lane id=":gneJ11_1_1" index="1" speed="22.00" length="27.38" shape="6.51,-87.58 7.00,-95.68 8.10,-101.18 9.21,-106.68 9.72,-114.77"/>
        <lane id=":gneJ11_1_2" index="2" speed="22.00" length="27.38" shape="9.71,-87.58 10.20,-95.68 11.30,-101.18 12.41,-106.67 12.92,-114.77"/>
        <lane id=":gneJ11_1_3" index="3" speed="22.00" length="27.38" shape="12.91,-87.58 13.40,-95.68 14.50,-101.17 15.61,-106.67 16.12,-114.76"/>
    </edge>
    <edge id=":gneJ11_5" function="internal">
        <lane id=":gneJ11_5_0" index="0" speed="11.39" length="29.86" shape="16.11,-87.58 17.46,-94.24 21.50,-98.99 28.25,-101.83 37.71,-102.78"/>
    </edge>
    <edge id=":gneJ11_6" function="internal">
        <lane id=":gneJ11_6_0" index="0" speed="7.33" length="11.73" shape="37.70,-93.18 33.85,-92.83 31.10,-91.78 29.45,-90.03 28.90,-87.58"/>
    </edge>
    <edge id=":gneJ11_7" function="internal">
        <lane id=":gneJ11_7_0" index="0" speed="22.00" length="40.13" shape="37.70,-93.18 -2.30,-96.38"/>
        <lane id=":gneJ11_7_1" index="1" speed="22.00" length="40.13" shape="37.71,-96.38 -2.30,-99.58"/>
    </edge>
    <edge id=":gneJ11_9" function="internal">
        <lane id=":gneJ11_9_0" index="0" speed="11.39" length="29.83" shape="37.71,-99.58 28.25,-100.53 21.51,-103.38 17.46,-108.12 16.12,-114.76"/>
    </edge>
    <edge id=":gneJ11_10" function="internal">
        <lane id=":gneJ11_10_0" index="0" speed="7.31" length="11.68" shape="32.12,-114.74 32.47,-110.91 33.51,-108.17 35.26,-106.53 37.71,-105.98"/>
    </edge>
    <edge id=":gneJ11_11" function="internal">
        <lane id=":gneJ11_11_0" index="0" speed="22.00" length="27.35" shape="28.92,-114.74 28.90,-87.58"/>
        <lane id=":gneJ11_11_1" index="1" speed="22.00" length="27.35" shape="28.92,-114.74 28.41,-106.65 27.30,-101.16 26.20,-95.67 25.70,-87.58"/>
        <lane id=":gneJ11_11_2" index="2" speed="22.00" length="27.35" shape="25.72,-114.75 25.21,-106.66 24.10,-101.17 23.00,-95.67 22.50,-87.58"/>
        <lane id=":gneJ11_11_3" index="3" speed="22.00" length="27.35" shape="22.52,-114.75 22.01,-106.66 20.90,-101.17 19.80,-95.68 19.30,-87.58"/>
    </edge>
    <edge id=":gneJ11_15" function="internal">
        <lane id=":gneJ11_15_0" index="0" speed="11.40" length="29.84" shape="19.32,-114.76 17.96,-108.12 13.90,-103.38 7.15,-100.53 -2.30,-99.58"/>
    </edge>
    <edge id=":gneJ11_16" function="internal">
        <lane id=":gneJ11_16_0" index="0" speed="7.34" length="11.75" shape="-2.30,-109.18 1.55,-109.53 4.31,-110.58 5.97,-112.33 6.52,-114.78"/>
    </edge>
    <edge id=":gneJ11_17" function="internal">
        <lane id=":gneJ11_17_0" index="0" speed="22.00" length="40.08" shape="-2.30,-105.98 37.71,-105.98"/>
        <lane id=":gneJ11_17_1" index="1" speed="22.00" length="40.08" shape="-2.30,-105.98 37.71,-102.78"/>
    </edge>
    <edge id=":gneJ11_19" function="internal">
        <lane id=":gneJ11_19_0" index="0" speed="11.39" length="29.85" shape="-2.30,-102.78 7.15,-101.83 13.90,-98.99 17.95,-94.24 19.30,-87.58"/>
    </edge>
    <edge id=":gneJ15_0" function="internal">
        <lane id=":gneJ15_0_0" index="0" speed="22.00" length="8.16" shape="28.87,697.33 29.37,699.79 30.47,701.33 31.57,702.87 32.07,705.34"/>
        <lane id=":gneJ15_0_1" index="1" speed="22.00" length="8.16" shape="28.87,697.33 28.87,705.33"/>
        <lane id=":gneJ15_0_2" index="2" speed="22.00" length="8.16" shape="25.67,697.33 25.67,705.33"/>
        <lane id=":gneJ15_0_3" index="3" speed="22.00" length="8.16" shape="22.47,697.33 22.47,705.33"/>
        <lane id=":gneJ15_0_4" index="4" speed="22.00" length="8.16" shape="19.27,697.33 19.27,705.33"/>
    </edge>
    <edge id=":gneJ30_0" function="internal">
        <lane id=":gneJ30_0_0" index="0" speed="6.53" length="9.09" shape="247.37,825.00 247.02,822.52 245.96,820.75 244.21,819.68 241.76,819.33"/>
    </edge>
    <edge id=":gneJ30_1" function="internal">
        <lane id=":gneJ30_1_0" index="0" speed="13.89" length="17.75" shape="247.37,825.00 247.39,807.24"/>
        <lane id=":gneJ30_1_1" index="1" speed="13.89" length="17.75" shape="250.57,824.99 250.59,807.26"/>
    </edge>
    <edge id=":gneJ30_3" function="internal">
        <lane id=":gneJ30_3_0" index="0" speed="9.82" length="22.01" shape="253.77,824.98 254.71,819.71 257.55,815.95 262.30,813.71 268.96,812.98"/>
    </edge>
    <edge id=":gneJ30_4" function="internal">
        <lane id=":gneJ30_4_0" index="0" speed="7.30" length="11.69" shape="268.93,819.38 265.09,819.72 262.35,820.76 260.71,822.51 260.17,824.96"/>
    </edge>
    <edge id=":gneJ30_5" function="internal">
        <lane id=":gneJ30_5_0" index="0" speed="17.95" length="27.18" shape="268.93,819.38 241.76,819.33"/>
        <lane id=":gneJ30_5_1" index="1" speed="17.95" length="27.18" shape="268.95,816.18 241.76,816.13"/>
    </edge>
    <edge id=":gneJ30_7" function="internal">
        <lane id=":gneJ30_7_0" index="0" speed="9.31" length="19.65" shape="268.95,816.18 262.29,815.60 257.55,813.93 254.72,811.15 253.79,807.28"/>
    </edge>
    <edge id=":gneJ30_8" function="internal">
        <lane id=":gneJ30_8_0" index="0" speed="6.50" length="9.03" shape="263.39,807.35 263.73,809.81 264.76,811.56 266.51,812.62 268.96,812.98"/>
    </edge>
    <edge id=":gneJ30_9" function="internal">
        <lane id=":gneJ30_9_0" index="0" speed="13.89" length="18.01" shape="263.39,807.35 262.86,812.62 261.75,816.16 260.66,819.69 260.17,824.96"/>
        <lane id=":gneJ30_9_1" index="1" speed="13.89" length="18.01" shape="260.19,807.33 259.66,812.61 258.55,816.15 257.46,819.69 256.97,824.97"/>
    </edge>
    <edge id=":gneJ30_11" function="internal">
        <lane id=":gneJ30_11_0" index="0" speed="9.35" length="19.65" shape="256.99,807.31 256.02,811.17 253.15,813.92 248.40,815.58 241.76,816.13"/>
    </edge>
    <edge id=":gneJ30_12" function="internal">
        <lane id=":gneJ30_12_0" index="0" speed="6.55" length="9.12" shape="241.76,812.93 244.21,812.57 245.96,811.51 247.03,809.73 247.39,807.24"/>
    </edge>
    <edge id=":gneJ30_13" function="internal">
        <lane id=":gneJ30_13_0" index="0" speed="17.95" length="27.20" shape="241.76,812.93 268.96,812.98"/>
    </edge>
    <edge id=":gneJ30_14" function="internal">
        <lane id=":gneJ30_14_0" index="0" speed="9.86" length="22.02" shape="241.76,812.93 248.40,813.68 253.15,815.94 256.01,819.70 256.97,824.97"/>
    </edge>
    <edge id=":gneJ33_0" function="internal">
        <lane id=":gneJ33_0_0" index="0" speed="7.34" length="11.79" shape="275.72,-96.14 273.26,-95.61 271.48,-93.96 270.41,-91.21 270.03,-87.33"/>
    </edge>
    <edge id=":gneJ33_1" function="internal">
        <lane id=":gneJ33_1_0" index="0" speed="17.95" length="27.34" shape="275.72,-96.14 269.17,-95.70 263.49,-94.63 257.10,-93.56 248.46,-93.07"/>
        <lane id=":gneJ33_1_1" index="1" speed="17.95" length="27.34" shape="275.72,-96.14 248.46,-96.27"/>
        <lane id=":gneJ33_1_2" index="2" speed="17.95" length="27.34" shape="275.75,-99.34 248.46,-99.47"/>
    </edge>
    <edge id=":gneJ33_4" function="internal">
        <lane id=":gneJ33_4_0" index="0" speed="10.40" length="24.79" shape="275.75,-99.34 267.69,-100.17 261.96,-102.48 258.56,-106.29 257.48,-111.58"/>
    </edge>
    <edge id=":gneJ33_5" function="internal">
        <lane id=":gneJ33_5_0" index="0" speed="9.83" length="22.04" shape="275.75,-99.34 269.09,-100.15 264.36,-102.46 261.56,-106.25 260.68,-111.53"/>
    </edge>
    <edge id=":gneJ33_6" function="internal">
        <lane id=":gneJ33_6_0" index="0" speed="6.50" length="9.03" shape="270.28,-111.40 270.59,-108.94 271.62,-107.18 273.36,-106.11 275.81,-105.74"/>
    </edge>
    <edge id=":gneJ33_7" function="internal">
        <lane id=":gneJ33_7_0" index="0" speed="13.89" length="24.17" shape="270.28,-111.40 270.03,-87.33"/>
        <lane id=":gneJ33_7_1" index="1" speed="13.89" length="24.17" shape="267.08,-111.44 266.83,-87.36"/>
        <lane id=":gneJ33_7_2" index="2" speed="13.89" length="24.17" shape="267.08,-111.44 266.48,-104.27 265.32,-99.41 264.18,-94.56 263.63,-87.38"/>
    </edge>
    <edge id=":gneJ33_10" function="internal">
        <lane id=":gneJ33_10_0" index="0" speed="10.96" length="27.24" shape="263.88,-111.49 262.82,-103.43 259.89,-97.67 255.11,-94.22 248.46,-93.07"/>
    </edge>
    <edge id=":gneJ33_11" function="internal">
        <lane id=":gneJ33_11_0" index="0" speed="10.44" length="24.63" shape="263.88,-111.49 262.83,-104.83 259.92,-100.07 255.12,-97.22 248.46,-96.27"/>
    </edge>
    <edge id=":gneJ33_12" function="internal">
        <lane id=":gneJ33_12_0" index="0" speed="9.92" length="22.14" shape="263.88,-111.49 262.85,-106.23 259.94,-102.47 255.14,-100.22 248.46,-99.47"/>
    </edge>
    <edge id=":gneJ33_13" function="internal">
        <lane id=":gneJ33_13_0" index="0" speed="7.43" length="11.97" shape="248.47,-105.87 252.38,-106.22 255.19,-107.29 256.89,-109.08 257.48,-111.58"/>
    </edge>
    <edge id=":gneJ33_14" function="internal">
        <lane id=":gneJ33_14_0" index="0" speed="8.20" length="14.79" shape="248.47,-105.87 253.78,-106.22 257.59,-107.28 259.89,-109.05 260.68,-111.53"/>
    </edge>
    <edge id=":gneJ33_15" function="internal">
        <lane id=":gneJ33_15_0" index="0" speed="17.95" length="27.33" shape="248.47,-105.87 275.81,-105.74"/>
        <lane id=":gneJ33_15_1" index="1" speed="17.95" length="27.33" shape="248.46,-102.67 275.78,-102.54"/>
    </edge>
    <edge id=":gneJ33_17" function="internal">
        <lane id=":gneJ33_17_0" index="0" speed="11.38" length="29.95" shape="248.46,-102.67 257.94,-101.70 264.69,-98.83 268.72,-94.04 270.03,-87.33"/>
    </edge>
    <edge id=":gneJ33_18" function="internal">
        <lane id=":gneJ33_18_0" index="0" speed="10.87" length="27.23" shape="248.46,-102.67 256.54,-101.71 262.29,-98.84 265.72,-94.05 266.83,-87.36"/>
    </edge>
    <edge id=":gneJ33_19" function="internal">
        <lane id=":gneJ33_19_0" index="0" speed="10.35" length="24.59" shape="248.46,-102.67 255.14,-101.71 259.89,-98.84 262.72,-94.07 263.63,-87.38"/>
    </edge>
    <edge id=":gneJ33_20" function="internal">
        <lane id=":gneJ33_20_0" index="0" speed="6.49" length="9.03" shape="254.03,-87.45 253.70,-89.91 252.66,-91.66 250.91,-92.72 248.46,-93.07"/>
    </edge>
    <edge id=":gneJ33_21" function="internal">
        <lane id=":gneJ33_21_0" index="0" speed="13.89" length="24.42" shape="254.03,-87.45 254.59,-94.96 255.73,-100.34 256.89,-105.31 257.48,-111.58"/>
        <lane id=":gneJ33_21_1" index="1" speed="13.89" length="24.42" shape="257.23,-87.43 257.79,-94.93 258.93,-100.30 260.09,-105.26 260.68,-111.53"/>
    </edge>
    <edge id=":gneJ33_23" function="internal">
        <lane id=":gneJ33_23_0" index="0" speed="10.89" length="27.22" shape="260.43,-87.41 261.44,-95.48 264.34,-101.22 269.13,-104.64 275.81,-105.74"/>
    </edge>
    <edge id=":gneJ33_24" function="internal">
        <lane id=":gneJ33_24_0" index="0" speed="10.37" length="24.59" shape="260.43,-87.41 261.43,-94.08 264.32,-98.82 269.11,-101.64 275.78,-102.54"/>
    </edge>

    <edge id="-E0" from="gneJ30" to="gneJ33" priority="-1">
        <lane id="-E0_0" index="0" speed="13.89" length="894.71" shape="247.39,807.24 254.03,-87.45"/>
        <lane id="-E0_1" index="1" speed="13.89" length="894.71" shape="250.59,807.26 257.23,-87.43"/>
        <lane id="-E0_2" index="2" speed="13.89" length="894.71" shape="253.79,807.28 260.43,-87.41"/>
    </edge>
    <edge id="-E4" from="gneJ40" to="gneJ30" priority="-1">
        <lane id="-E4_0" index="0" speed="13.89" length="167.24" shape="436.17,820.02 268.93,819.38"/>
        <lane id="-E4_1" index="1" speed="13.89" length="167.24" shape="436.18,816.82 268.95,816.18"/>
    </edge>
    <edge id="-E5" from="gneJ41" to="gneJ30" priority="-1">
        <lane id="-E5_0" index="0" speed="13.89" length="144.16" shape="247.85,969.16 247.37,825.00"/>
        <lane id="-E5_1" index="1" speed="13.89" length="144.16" shape="251.05,969.15 250.57,824.99"/>
        <lane id="-E5_2" index="2" speed="13.89" length="144.16" shape="254.25,969.14 253.77,824.98"/>
    </edge>
    <edge id="-E6" from="gneJ42" to="gneJ33" priority="-1">
        <lane id="-E6_0" index="0" speed="13.89" length="126.04" shape="272.09,-237.43 270.28,-111.40"/>
        <lane id="-E6_1" index="1" speed="13.89" length="126.04" shape="268.89,-237.47 267.08,-111.44"/>
        <lane id="-E6_2" index="2" speed="13.89" length="126.04" shape="265.69,-237.52 263.88,-111.49"/>
    </edge>
    <edge id="-E7" from="gneJ43" to="gneJ33" priority="-1">
        <lane id="-E7_0" index="0" speed="13.89" length="146.49" shape="422.21,-94.84 275.72,-96.14"/>
        <lane id="-E7_1" index="1" speed="13.89" length="146.49" shape="422.24,-98.04 275.75,-99.34"/>
    </edge>
    <edge id="-L1" from="gneJ34" to="gneJ11" priority="-1">
        <lane id="-L1_0" index="0" speed="22.00" length="215.70" shape="-218.00,-109.05 -2.30,-109.18"/>
        <lane id="-L1_1" index="1" speed="22.00" length="215.70" shape="-218.00,-105.85 -2.30,-105.98"/>
        <lane id="-L1_2" index="2" speed="22.00" length="215.70" shape="-218.00,-102.65 -2.30,-102.78"/>
    </edge>
    <edge id="-L2" from="gneJ11" to="gneJ35" priority="-1">
        <lane id="-L2_0" index="0" speed="22.00" length="126.04" shape="6.52,-114.78 6.74,-240.82"/>
        <lane id="-L2_1" index="1" speed="22.00" length="126.04" shape="9.72,-114.77 9.94,-240.81"/>
        <lane id="-L2_2" index="2" speed="22.00" length="126.04" shape="12.92,-114.77 13.14,-240.81"/>
        <lane id="-L2_3" index="3" speed="22.00" length="126.04" shape="16.12,-114.76 16.34,-240.80"/>
    </edge>
    <edge id="-L3" from="gneJ11" to="gneJ33" priority="-1">
        <lane id="-L3_0" index="0" speed="22.00" length="210.76" shape="37.71,-105.98 248.47,-105.87"/>
        <lane id="-L3_1" index="1" speed="22.00" length="210.76" shape="37.71,-102.78 248.46,-102.67"/>
    </edge>
    <edge id="-L4" from="c1" to="gneJ30" priority="-1">
        <lane id="-L4_0" index="0" speed="22.00" length="204.15" shape="37.61,812.93 241.76,812.93"/>
    </edge>
    <edge id="-L5" from="gneJ31" to="c1" priority="-1">
        <lane id="-L5_0" index="0" speed="22.00" length="142.04" shape="3.27,966.99 3.21,824.94"/>
        <lane id="-L5_1" index="1" speed="22.00" length="142.04" shape="6.47,966.98 6.41,824.94"/>
        <lane id="-L5_2" index="2" speed="22.00" length="142.04" shape="9.67,966.98 9.61,824.94"/>
        <lane id="-L5_3" index="3" speed="22.00" length="142.04" shape="12.87,966.98 12.81,824.94"/>
        <lane id="-L5_4" index="4" speed="22.00" length="142.04" shape="16.07,966.98 16.01,824.94"/>
    </edge>
    <edge id="-L6" from="gneJ32" to="c1" priority="-1">
        <lane id="-L6_0" index="0" speed="22.00" length="178.25" shape="-180.64,809.71 -2.39,809.73"/>
        <lane id="-L6_1" index="1" speed="22.00" length="178.25" shape="-180.64,812.91 -2.39,812.93"/>
    </edge>
    <edge id="E0" from="gneJ33" to="gneJ30" priority="-1">
        <lane id="E0_0" index="0" speed="13.89" length="894.71" shape="270.03,-87.33 263.39,807.35"/>
        <lane id="E0_1" index="1" speed="13.89" length="894.71" shape="266.83,-87.36 260.19,807.33"/>
        <lane id="E0_2" index="2" speed="13.89" length="894.71" shape="263.63,-87.38 256.99,807.31"/>
    </edge>
    <edge id="E4" from="gneJ30" to="gneJ40" priority="-1">
        <lane id="E4_0" index="0" speed="13.89" length="167.24" shape="268.96,812.98 436.20,813.62"/>
    </edge>
    <edge id="E5" from="gneJ30" to="gneJ41" priority="-1">
        <lane id="E5_0" index="0" speed="13.89" length="144.16" shape="260.17,824.96 260.65,969.11"/>
        <lane id="E5_1" index="1" speed="13.89" length="144.16" shape="256.97,824.97 257.45,969.12"/>
    </edge>
    <edge id="E6" from="gneJ33" to="gneJ42" priority="-1">
        <lane id="E6_0" index="0" speed="13.89" length="126.04" shape="257.48,-111.58 259.29,-237.61"/>
        <lane id="E6_1" index="1" speed="13.89" length="126.04" shape="260.68,-111.53 262.49,-237.56"/>
    </edge>
    <edge id="E7" from="gneJ33" to="gneJ43" priority="-1">
        <lane id="E7_0" index="0" speed="13.89" length="146.49" shape="275.81,-105.74 422.29,-104.44"/>
        <lane id="E7_1" index="1" speed="13.89" length="146.49" shape="275.78,-102.54 422.26,-101.24"/>
    </edge>
    <edge id="L1" from="gneJ11" to="gneJ34" priority="-1">
        <lane id="L1_0" index="0" speed="22.00" length="215.70" shape="-2.30,-96.38 -218.00,-96.25"/>
        <lane id="L1_1" index="1" speed="22.00" length="215.70" shape="-2.30,-99.58 -218.00,-99.45"/>
    </edge>
    <edge id="L2" from="gneJ35" to="gneJ11" priority="-1">
        <lane id="L2_0" index="0" speed="22.00" length="126.04" shape="32.34,-240.78 32.12,-114.74"/>
        <lane id="L2_1" index="1" speed="22.00" length="126.04" shape="29.14,-240.78 28.92,-114.74"/>
        <lane id="L2_2" index="2" speed="22.00" length="126.04" shape="25.94,-240.79 25.72,-114.75"/>
        <lane id="L2_3" index="3" speed="22.00" length="126.04" shape="22.74,-240.79 22.52,-114.75"/>
        <lane id="L2_4" index="4" speed="22.00" length="126.04" shape="19.54,-240.80 19.32,-114.76"/>
    </edge>
    <edge id="L3" from="gneJ33" to="gneJ11" priority="-1">
        <lane id="L3_0" index="0" speed="22.00" length="210.76" shape="248.46,-93.07 37.70,-93.18"/>
        <lane id="L3_1" index="1" speed="22.00" length="210.76" shape="248.46,-96.27 37.71,-96.38"/>
        <lane id="L3_2" index="2" speed="22.00" length="210.76" shape="248.46,-99.47 37.71,-99.58"/>
    </edge>
    <edge id="L4" from="gneJ30" to="c1" priority="-1">
        <lane id="L4_0" index="0" speed="22.00" length="204.15" shape="241.76,819.33 37.61,819.33"/>
        <lane id="L4_1" index="1" speed="22.00" length="204.15" shape="241.76,816.13 37.61,816.13"/>
    </edge>
    <edge id="L5" from="c1" to="gneJ31" priority="-1">
        <lane id="L5_0" index="0" speed="22.00" length="142.04" shape="28.81,824.93 28.87,966.98"/>
        <lane id="L5_1" index="1" speed="22.00" length="142.04" shape="25.61,824.93 25.67,966.98"/>
        <lane id="L5_2" index="2" speed="22.00" length="142.04" shape="22.41,824.93 22.47,966.98"/>
        <lane id="L5_3" index="3" speed="22.00" length="142.04" shape="19.21,824.93 19.27,966.98"/>
    </edge>
    <edge id="L6" from="c1" to="gneJ32" priority="-1">
        <lane id="L6_0" index="0" speed="22.00" length="178.25" shape="-2.39,816.13 -180.64,816.11"/>
    </edge>
    <edge id="m1" from="gneJ11" to="gneJ15" priority="-1">
        <lane id="m1_0" index="0" speed="22.00" length="784.92" shape="28.90,-87.58 28.87,697.33"/>
        <lane id="m1_1" index="1" speed="22.00" length="784.92" shape="25.70,-87.58 25.67,697.33"/>
        <lane id="m1_2" index="2" speed="22.00" length="784.92" shape="22.50,-87.58 22.47,697.33"/>
        <lane id="m1_3" index="3" speed="22.00" length="784.92" shape="19.30,-87.58 19.27,697.33"/>
    </edge>
    <edge id="m2" from="gneJ1" to="gneJ11" priority="-1">
        <lane id="m2_0" index="0" speed="22.00" length="81.54" shape="3.37,-6.04 3.31,-87.58"/>
        <lane id="m2_1" index="1" speed="22.00" length="81.54" shape="6.57,-6.04 6.51,-87.58"/>
        <lane id="m2_2" index="2" speed="22.00" length="81.54" shape="9.77,-6.05 9.71,-87.58"/>
        <lane id="m2_3" index="3" speed="22.00" length="81.54" shape="12.97,-6.05 12.91,-87.58"/>
        <lane id="m2_4" index="4" speed="22.00" length="81.54" shape="16.17,-6.05 16.11,-87.58"/>
    </edge>
    <edge id="m3" from="gneJ15" to="c1" priority="-1">
        <lane id="m3_0" index="0" speed="22.00" length="98.80" shape="32.07,705.34 32.02,804.13"/>
        <lane id="m3_1" index="1" speed="22.00" length="98.80" shape="28.87,705.33 28.82,804.13"/>
        <lane id="m3_2" index="2" speed="22.00" length="98.80" shape="25.67,705.33 25.62,804.13"/>
        <lane id="m3_3" index="3" speed="22.00" length="98.80" shape="22.47,705.33 22.42,804.13"/>
        <lane id="m3_4" index="4" speed="22.00" length="98.80" shape="19.27,705.33 19.22,804.13"/>
    </edge>
    <edge id="m4" from="c1" to="gneJ1" priority="-1" length="800.00">
        <lane id="m4_0" index="0" speed="22.00" length="800.00" shape="6.41,804.13 6.57,1.95"/>
        <lane id="m4_1" index="1" speed="22.00" length="800.00" shape="9.61,804.13 9.77,1.95"/>
        <lane id="m4_2" index="2" speed="22.00" length="800.00" shape="12.81,804.13 12.97,1.95"/>
        <lane id="m4_3" index="3" speed="22.00" length="800.00" shape="16.01,804.13 16.17,1.95"/>
    </edge>

    <tlLogic id="gneJ11" type="static" programID="0" offset="0">
        <phase duration="23" state="GGGGGrGrrrGGGGGrGrrr"/>
        <phase duration="3"  state="GyyyyrGrrrGyyyyrGrrr"/>
        <phase duration="12" state="GrrrrGGrrrGrrrrGGrrr"/>
        <phase duration="3"  state="GrrrryGrrrGrrrryGrrr"/>
        <phase duration="18" state="GrrrrrGGGrGrrrrrGGGr"/>
        <phase duration="3"  state="GrrrrrGyyrGrrrrrGyyr"/>
        <phase duration="10" state="GrrrrrGrrGGrrrrrGrrG"/>
        <phase duration="3"  state="GrrrrrGrryGrrrrrGrry"/>
    </tlLogic>
    <tlLogic id="gneJ29" type="static" programID="0" offset="0">
        <phase duration="20" state="GGGGGrGrrrrGGGGGrGrrrr"/>
        <phase duration="3"  state="GyyyyrGrrrrGyyyyrGrrrr"/>
        <phase duration="9"  state="GrrrrGGrrrrGrrrrGGrrrr"/>
        <phase duration="3"  state="GrrrryGrrrrGrrrryGrrrr"/>
        <phase duration="17" state="GrrrrrGGGGGGrrrrrGrrrr"/>
        <phase duration="3"  state="GrrrrrGyyyyGrrrrrGrrrr"/>
        <phase duration="17" state="GrrrrrGrrrrGrrrrrGGGGG"/>
        <phase duration="3"  state="GrrrrrGrrrrGrrrrrGyyyy"/>
    </tlLogic>
    <tlLogic id="gneJ30" type="static" programID="0" offset="0">
        <phase duration="3"  state="GrrrGrrrGrrrGyy"/>
        <phase duration="17" state="GGGrGrrrGGGrGrr"/>
        <phase duration="3"  state="GyyrGrrrGyyrGrr"/>
        <phase duration="12" state="GrrGGrrrGrrGGrr"/>
        <phase duration="3"  state="GrryGrrrGrryGrr"/>
        <phase duration="17" state="GrrrGGGGGrrrGrr"/>
        <phase duration="3"  state="GrrrGyyyGrrrGrr"/>
        <phase duration="17" state="GrrrGrrrGrrrGGG"/>
    </tlLogic>
    <tlLogic id="gneJ33" type="static" programID="0" offset="0">
        <phase duration="3"  state="GrrrrrGrrrrrrGGyyyyyGrrrr"/>
        <phase duration="23" state="GrrrrrGGGGrrrGGrrrrrGGGrr"/>
        <phase duration="3"  state="GrrrrrGyyyrrrGGrrrrrGyyrr"/>
        <phase duration="12" state="GrrrrrGrrrGGGGGrrrrrGrrGG"/>
        <phase duration="3"  state="GrrrrrGrrryyyyyrrrrrGrryy"/>
        <phase duration="18" state="GGGGGGGrrrrrrrrrrrrrGrrrr"/>
        <phase duration="3"  state="GyyyyyGrrrrrrrrrrrrrGrrrr"/>
        <phase duration="10" state="GrrrrrGrrrrrrGGGGGGGGrrrr"/>
    </tlLogic>

    <junction id="c1" type="traffic_light" x="17.61" y="814.53" incLanes="-L5_0 -L5_1 -L5_2 -L5_3 -L5_4 L4_0 L4_1 m3_0 m3_1 m3_2 m3_3 m3_4 -L6_0 -L6_1" intLanes=":c1_0_0 :c1_1_0 :c1_1_1 :c1_1_2 :c1_1_3 :c1_5_0 :c1_6_0 :c1_7_0 :c1_7_1 :c1_9_0 :c1_10_0 :c1_11_0 :c1_12_0 :c1_12_1 :c1_12_2 :c1_12_3 :c1_16_0 :c1_17_0 :c1_18_0 :c1_18_1 :c1_20_0 :c1_21_0" shape="1.61,824.94 30.41,824.93 31.21,822.71 32.21,821.93 33.61,821.37 35.41,821.04 37.61,820.93 37.61,811.33 35.39,810.53 34.61,809.53 34.06,808.13 33.73,806.33 33.62,804.13 4.81,804.13 4.01,806.35 3.01,807.13 1.61,807.68 -0.19,808.02 -2.39,808.13 -2.39,817.73 -0.17,818.53 0.61,819.53 1.17,820.93 1.50,822.74">
        <request index="0"  response="0000000000000000000000" foes="0000010000000110000000" cont="0"/>
        <request index="1"  response="0000000000000000000000" foes="1111110000011110000000" cont="0"/>
        <request index="2"  response="0000000000000000000000" foes="1111110000011110000000" cont="0"/>
        <request index="3"  response="0000000000000000000000" foes="1111110000011110000000" cont="0"/>
        <request index="4"  response="0000000000000000000000" foes="1111110000011110000000" cont="0"/>